code/cases/bench/bench_northwest.raw
0,   100.00, 33, 0, 1, 60.00     / PSS(R)E-33.5    FRI, DEC 22 2017  12:51
BENCHMARK FOR SENDING POWER GRID BASED ON NORTHWEST CHINA
SHANDONG UNIVERSITY, LI CHANGGANG/PENG PEIQI, 2017/12/22
     1,'甘白银      ', 800.0000,1,   1,   1,   1,1.03093, -16.6979,1.10000,0.90000,1.10000,0.90000
     2,'甘常乐厂    ', 800.0000,1,   1,   1,   1,0.99908,  13.3298,1.10000,0.90000,1.10000,0.90000
     3,'甘崇信      ', 800.0000,1,   1,   1,   1,1.02266, -21.7254,1.10000,0.90000,1.10000,0.90000
     4,'甘敦煌      ', 800.0000,1,   1,   1,   1,1.00210,  15.6399,1.10000,0.90000,1.10000,0.90000
     7,'甘河西      ', 800.0000,1,   1,   1,   1,0.99256, -10.7135,1.10000,0.90000,1.10000,0.90000
     8,'甘景泰厂    ', 800.0000,1,   1,   1,   1,1.02834, -16.3557,1.10000,0.90000,1.10000,0.90000
     9,'甘酒泉      ', 800.0000,1,   1,   1,   1,1.01187,   4.6772,1.10000,0.90000,1.10000,0.90000
    10,'甘酒泉换    ', 800.0000,1,   1,   1,   1,1.00386,  12.3417,1.10000,0.90000,1.10000,0.90000
    11,'甘兰州东    ', 800.0000,1,   1,   1,   1,1.03330, -18.0276,1.10000,0.90000,1.10000,0.90000
    12,'甘麦积      ', 800.0000,1,   1,   1,   1,1.03158, -21.9789,1.10000,0.90000,1.10000,0.90000
    13,'甘平凉      ', 800.0000,1,   1,   1,   1,1.02361, -21.9440,1.10000,0.90000,1.10000,0.90000
    14,'甘平凉2     ', 800.0000,1,   1,   1,   1,1.02305, -21.7556,1.10000,0.90000,1.10000,0.90000
    15,'甘桥湾      ', 800.0000,1,   1,   1,   1,1.00538,  12.9847,1.10000,0.90000,1.10000,0.90000
    16,'甘沙州      ', 800.0000,1,   1,   1,   1,1.01393,  16.4421,1.10000,0.90000,1.10000,0.90000
    17,'甘武胜      ', 800.0000,1,   1,   1,   1,1.02027, -13.7825,1.10000,0.90000,1.10000,0.90000
    18,'宁六盘山    ', 800.0000,1,   1,   1,   1,1.02304, -22.0098,1.10000,0.90000,1.10000,0.90000
    19,'宁大坝      ', 800.0000,1,   1,   1,   1,1.01738, -20.9719,1.10000,0.90000,1.10000,0.90000
    20,'宁方家庄    ', 800.0000,1,   1,   1,   1,1.00997, -20.8795,1.10000,0.90000,1.10000,0.90000
    21,'宁国华      ', 800.0000,1,   1,   1,   1,1.01018, -20.9470,1.10000,0.90000,1.10000,0.90000
    22,'宁贺兰山    ', 800.0000,1,   1,   1,   1,1.01751, -21.0787,1.10000,0.90000,1.10000,0.90000
    23,'宁黄河      ', 800.0000,1,   1,   1,   1,1.02040, -20.7774,1.10000,0.90000,1.10000,0.90000
    24,'宁宁东      ', 800.0000,1,   1,   1,   1,1.00772, -22.9685,1.10000,0.90000,1.10000,0.90000
    25,'宁灵武      ', 800.0000,1,   1,   1,   1,1.00780, -23.0154,1.10000,0.90000,1.10000,0.90000
    26,'宁杞乡      ', 800.0000,1,   1,   1,   1,1.02071, -20.7908,1.10000,0.90000,1.10000,0.90000
    27,'宁沙湖      ', 800.0000,1,   1,   1,   1,1.01068, -22.8102,1.10000,0.90000,1.10000,0.90000
    28,'宁沙坡头    ', 800.0000,1,   1,   1,   1,1.01959, -21.0983,1.10000,0.90000,1.10000,0.90000
    30,'宁太阳山    ', 800.0000,1,   1,   1,   1,1.01021, -22.0920,1.10000,0.90000,1.10000,0.90000
    32,'宁银川东    ', 800.0000,1,   1,   1,   1,1.00749, -23.0847,1.10000,0.90000,1.10000,0.90000
    33,'宁永利      ', 800.0000,1,   1,   1,   1,1.00994, -21.8732,1.10000,0.90000,1.10000,0.90000
    34,'宁鸳鸯湖    ', 800.0000,1,   1,   1,   1,1.01118, -19.9324,1.10000,0.90000,1.10000,0.90000
    35,'宁枣泉      ', 800.0000,1,   1,   1,   1,1.01130, -20.0437,1.10000,0.90000,1.10000,0.90000
    36,'宁银星      ', 800.0000,1,   1,   1,   1,1.00984, -21.8129,1.10000,0.90000,1.10000,0.90000
    37,'宁中宁      ', 800.0000,1,   1,   1,   1,1.02067, -20.6498,1.10000,0.90000,1.10000,0.90000
    38,'青柴达木    ', 800.0000,1,   1,   1,   1,1.01396,   9.4971,1.10000,0.90000,1.10000,0.90000
    39,'青德令哈    ', 800.0000,1,   1,   1,   1,1.01012,   1.0233,1.10000,0.90000,1.10000,0.90000
    40,'青官亭      ', 800.0000,1,   1,   1,   1,1.02527, -12.6440,1.10000,0.90000,1.10000,0.90000
    41,'青海西      ', 800.0000,1,   1,   1,   1,1.01052,   1.0222,1.10000,0.90000,1.10000,0.90000
    42,'青海南      ', 800.0000,1,   1,   1,   1,1.03703,  -7.5094,1.10000,0.90000,1.10000,0.90000
    43,'青拉西瓦    ', 800.0000,1,   1,   1,   1,1.00926,  -5.4804,1.10000,0.90000,1.10000,0.90000
    44,'青日月山    ', 800.0000,1,   1,   1,   1,1.03043,  -7.6252,1.10000,0.90000,1.10000,0.90000
    45,'青格尔木    ', 800.0000,1,   1,   1,   1,1.01379,   9.6479,1.10000,0.90000,1.10000,0.90000
    46,'青塔拉      ', 800.0000,1,   1,   1,   1,1.03684,  -7.2830,1.10000,0.90000,1.10000,0.90000
    47,'青西宁      ', 800.0000,1,   1,   1,   1,1.02891,  -8.8847,1.10000,0.90000,1.10000,0.90000
    48,'青西宁北    ', 800.0000,1,   1,   1,   1,1.02556, -11.8635,1.10000,0.90000,1.10000,0.90000
    49,'青羊曲      ', 800.0000,1,   1,   1,   1,1.03592,  -7.0385,1.10000,0.90000,1.10000,0.90000
    50,'青佑宁      ', 800.0000,1,   1,   1,   1,1.02647, -11.4337,1.10000,0.90000,1.10000,0.90000
    51,'青鱼卡      ', 800.0000,1,   1,   1,   1,1.01796,  11.9190,1.10000,0.90000,1.10000,0.90000
    52,'陕宝鸡2     ', 800.0000,1,   1,   1,   1,1.02323, -24.9540,1.10000,0.90000,1.10000,0.90000
    53,'陕宝鸡      ', 800.0000,1,   1,   1,   1,1.02362, -25.0846,1.10000,0.90000,1.10000,0.90000
    54,'陕北换      ', 800.0000,1,   1,   1,   1,1.01905, -18.6038,1.10000,0.90000,1.10000,0.90000
    55,'陕彬长      ', 800.0000,1,   1,   1,   1,1.02592, -24.7184,1.10000,0.90000,1.10000,0.90000
    56,'陕店塔      ', 800.0000,1,   1,   1,   1,1.01735, -17.9031,1.10000,0.90000,1.10000,0.90000
    57,'陕定靖      ', 800.0000,1,   1,   1,   1,1.02314, -20.9825,1.10000,0.90000,1.10000,0.90000
    58,'陕富县      ', 800.0000,1,   1,   1,   1,1.02044, -22.9627,1.10000,0.90000,1.10000,0.90000
    59,'陕洛川      ', 800.0000,1,   1,   1,   1,1.02101, -23.4616,1.10000,0.90000,1.10000,0.90000
    60,'陕乾县      ', 800.0000,1,   1,   1,   1,1.02410, -25.0186,1.10000,0.90000,1.10000,0.90000
    61,'陕秦岭      ', 800.0000,1,   1,   1,   1,1.01968, -26.0215,1.10000,0.90000,1.10000,0.90000
    62,'陕清水      ', 800.0000,1,   1,   1,   1,1.01865, -18.3369,1.10000,0.90000,1.10000,0.90000
    63,'陕神木      ', 800.0000,1,   1,   1,   1,1.01978, -18.8713,1.10000,0.90000,1.10000,0.90000
    64,'陕双河      ', 800.0000,1,   1,   1,   1,1.02392, -20.0840,1.10000,0.90000,1.10000,0.90000
    65,'陕西安      ', 800.0000,1,   1,   1,   1,1.01206, -27.0221,1.10000,0.90000,1.10000,0.90000
    66,'陕西安北    ', 800.0000,1,   1,   1,   1,1.02057, -25.4559,1.10000,0.90000,1.10000,0.90000
    67,'陕信义      ', 800.0000,1,   1,   1,   1,1.01900, -26.0197,1.10000,0.90000,1.10000,0.90000
    68,'陕延安      ', 800.0000,1,   1,   1,   1,1.01977, -22.7670,1.10000,0.90000,1.10000,0.90000
    69,'陕榆横      ', 800.0000,1,   1,   1,   1,1.02404, -20.3643,1.10000,0.90000,1.10000,0.90000
    70,'上海庙      ', 800.0000,1,   1,   1,   1,1.01154, -22.8419,1.10000,0.90000,1.10000,0.90000
    71,'新喀什      ', 800.0000,1,   1,   1,   1,1.02847,  44.9254,1.10000,0.90000,1.10000,0.90000
    72,'新莎车      ', 800.0000,1,   1,   1,   1,1.03102,  44.5385,1.10000,0.90000,1.10000,0.90000
    73,'新阿克苏    ', 800.0000,1,   1,   1,   1,1.02124,  43.3376,1.10000,0.90000,1.10000,0.90000
    74,'新巴楚      ', 800.0000,1,   1,   1,   1,1.03152,  44.2410,1.10000,0.90000,1.10000,0.90000
    75,'新巴州      ', 800.0000,1,   1,   1,   1,1.01780,  36.4060,1.10000,0.90000,1.10000,0.90000
    76,'新五彩湾    ', 800.0000,1,   1,   1,   1,1.01024,  32.4651,1.10000,0.90000,1.10000,0.90000
    77,'新达坂城    ', 800.0000,1,   1,   1,   1,1.01207,  35.0761,1.10000,0.90000,1.10000,0.90000
    78,'新凤凰      ', 800.0000,1,   1,   1,   1,1.01261,  39.2780,1.10000,0.90000,1.10000,0.90000
    79,'新国信      ', 800.0000,1,   1,   1,   1,1.01540,  31.2402,1.10000,0.90000,1.10000,0.90000
    80,'新哈密      ', 800.0000,1,   1,   1,   1,0.98788,  21.9307,1.10000,0.90000,1.10000,0.90000
    81,'新和田      ', 800.0000,1,   1,   1,   1,1.02703,  44.3918,1.10000,0.90000,1.10000,0.90000
    82,'新恒联      ', 800.0000,1,   1,   1,   1,1.01081,  32.6802,1.10000,0.90000,1.10000,0.90000
    83,'新芨芨湖    ', 800.0000,1,   1,   1,   1,1.01512,  30.8595,1.10000,0.90000,1.10000,0.90000
    84,'新库车      ', 800.0000,1,   1,   1,   1,1.01905,  39.8681,1.10000,0.90000,1.10000,0.90000
    85,'新库车电    ', 800.0000,1,   1,   1,   1,1.01912,  39.7381,1.10000,0.90000,1.10000,0.90000
    86,'新木垒      ', 800.0000,1,   1,   1,   1,1.01415,  29.6579,1.10000,0.90000,1.10000,0.90000
    87,'新三塘湖    ', 800.0000,1,   1,   1,   1,1.00601,  25.7873,1.10000,0.90000,1.10000,0.90000
    88,'新鄯善      ', 800.0000,1,   1,   1,   1,1.00065,  30.5981,1.10000,0.90000,1.10000,0.90000
    89,'新天山换    ', 800.0000,1,   1,   1,   1,0.96533,  21.4438,1.10000,0.90000,1.10000,0.90000
    90,'新吐鲁番    ', 800.0000,1,   1,   1,   1,1.00911,  33.0012,1.10000,0.90000,1.10000,0.90000
    91,'新乌市      ', 800.0000,1,   1,   1,   1,1.01155,  35.2704,1.10000,0.90000,1.10000,0.90000
    92,'新乌苏      ', 800.0000,1,   1,   1,   1,1.00957,  43.2546,1.10000,0.90000,1.10000,0.90000
    93,'新五家渠    ', 800.0000,1,   1,   1,   1,1.01129,  35.1787,1.10000,0.90000,1.10000,0.90000
    94,'新信友      ', 800.0000,1,   1,   1,   1,1.01534,  31.2569,1.10000,0.90000,1.10000,0.90000
    95,'新亚中      ', 800.0000,1,   1,   1,   1,1.01231,  38.1883,1.10000,0.90000,1.10000,0.90000
    96,'新烟墩      ', 800.0000,1,   1,   1,   1,0.98364,  20.8997,1.10000,0.90000,1.10000,0.90000
    97,'新伊犁      ', 800.0000,1,   1,   1,   1,1.00660,  46.1585,1.10000,0.90000,1.10000,0.90000
    98,'新准北      ', 800.0000,1,   1,   1,   1,1.01053,  35.1807,1.10000,0.90000,1.10000,0.90000
    99,'新彩北2     ', 800.0000,1,   1,   1,   1,1.01058,  32.4515,1.10000,0.90000,1.10000,0.90000
   100,'新彩北3     ', 800.0000,1,   1,   1,   1,1.01020,  32.6323,1.10000,0.90000,1.10000,0.90000
   101,'新彩北1     ', 800.0000,1,   1,   1,   1,1.00809,  33.3227,1.10000,0.90000,1.10000,0.90000
   102,'新国网能    ', 800.0000,1,   1,   1,   1,1.00840,  33.7031,1.10000,0.90000,1.10000,0.90000
   103,'新准东换    ', 800.0000,1,   1,   1,   1,1.01010,  32.4528,1.10000,0.90000,1.10000,0.90000
   104,'新潞安      ', 800.0000,1,   1,   1,   1,1.00839,  33.7158,1.10000,0.90000,1.10000,0.90000
   105,'新神华      ', 800.0000,1,   1,   1,   1,1.01060,  32.7099,1.10000,0.90000,1.10000,0.90000
   106,'新英格玛    ', 800.0000,1,   1,   1,   1,1.01489,  31.4073,1.10000,0.90000,1.10000,0.90000
   107,'新天山G     ',  24.0000,2,   1,   1,   1,1.00000,  90.2442,1.10000,0.90000,1.10000,0.90000
   108,'甘常乐G     ',  24.0000,2,   1,   1,   1,1.00000,  50.2391,1.10000,0.90000,1.10000,0.90000
   109,'青拉西G     ',  24.0000,2,   1,   1,   1,1.00000,  26.8665,1.10000,0.90000,1.10000,0.90000
   110,'甘敦煌G     ',  24.0000,2,   1,   1,   1,1.00000,  48.2466,1.10000,0.90000,1.10000,0.90000
   111,'甘桥湾G     ',  24.0000,2,   1,   1,   1,1.00000,  45.4720,1.10000,0.90000,1.10000,0.90000
   112,'新彩北1G    ',  24.0000,2,   1,   1,   1,1.00000,  54.2455,1.10000,0.90000,1.10000,0.90000
   113,'宁方家G     ',  24.0000,2,   1,   1,   1,1.00000,  -3.5997,1.10000,0.90000,1.10000,0.90000
   114,'宁鸳鸯G     ',  24.0000,2,   1,   1,   1,1.00000,  -2.6738,1.10000,0.90000,1.10000,0.90000
   115,'宁银东G     ',  24.0000,2,   1,   1,   1,1.00000, -10.1802,1.10000,0.90000,1.10000,0.90000
   116,'新伊犁厂    ',  24.0000,2,   1,   1,   1,1.00000,  56.4596,1.10000,0.90000,1.10000,0.90000
   117,'宁国华G     ',  24.0000,2,   1,   1,   1,1.00000, -10.6829,1.10000,0.90000,1.10000,0.90000
   118,'宁枣泉G     ',  24.0000,2,   1,   1,   1,1.00000,  -9.7911,1.10000,0.90000,1.10000,0.90000
   119,'宁永利G     ',  24.0000,2,   1,   1,   1,1.00000, -11.6066,1.10000,0.90000,1.10000,0.90000
   120,'新潞安G     ',  24.0000,2,   1,   1,   1,1.00000,  43.9984,1.10000,0.90000,1.10000,0.90000
   121,'新国能G     ',  24.0000,2,   1,   1,   1,1.00000,  43.9855,1.10000,0.90000,1.10000,0.90000
   122,'新恒联G     ',  24.0000,2,   1,   1,   1,1.00000,  42.9379,1.10000,0.90000,1.10000,0.90000
   123,'新神华G     ',  24.0000,2,   1,   1,   1,1.00000,  42.9697,1.10000,0.90000,1.10000,0.90000
   124,'新英格G     ',  24.0000,2,   1,   1,   1,1.00000,  41.6233,1.10000,0.90000,1.10000,0.90000
   125,'陕富县G     ',  24.0000,2,   1,   1,   1,1.00000, -12.8029,1.10000,0.90000,1.10000,0.90000
   126,'青日月G     ',  24.0000,3,   1,   1,   1,1.00000,   0.0000,1.10000,0.90000,1.10000,0.90000
   127,'宁中宁G     ',  24.0000,2,   1,   1,   1,1.00000, -10.4923,1.10000,0.90000,1.10000,0.90000
   128,'宁大坝G     ',  24.0000,2,   1,   1,   1,1.00000, -10.7811,1.10000,0.90000,1.10000,0.90000
   129,'陕清水G     ',  24.0000,2,   1,   1,   1,1.00000,  -9.8690,1.10000,0.90000,1.10000,0.90000
   130,'新亚中厂    ',  24.0000,2,   1,   1,   1,1.00000,  46.7095,1.10000,0.90000,1.10000,0.90000
   131,'青塔拉G     ',  24.0000,2,   1,   1,   1,1.00000,   0.1983,1.10000,0.90000,1.10000,0.90000
   132,'新烟墩厂    ',  24.0000,2,   1,   1,   1,1.00000,  26.1495,1.10000,0.90000,1.10000,0.90000
   133,'陕定靖G     ',  24.0000,2,   1,   1,   1,1.00000, -15.9360,1.10000,0.90000,1.10000,0.90000
   134,'陕店塔G     ',  24.0000,2,   1,   1,   1,1.00000, -12.8278,1.10000,0.90000,1.10000,0.90000
   135,'陕双河G     ',  24.0000,2,   1,   1,   1,1.00000, -15.0414,1.10000,0.90000,1.10000,0.90000
   136,'新彩北3G    ',  24.0000,2,   1,   1,   1,1.00000,  37.7437,1.10000,0.90000,1.10000,0.90000
   137,'新乌苏G     ',  24.0000,2,   1,   1,   1,1.00000,  47.9419,1.10000,0.90000,1.10000,0.90000
   138,'新凤凰G     ',  24.0000,2,   1,   1,   1,1.00000,  43.9512,1.10000,0.90000,1.10000,0.90000
   139,'新五彩G     ',  24.0000,2,   1,   1,   1,1.00000,  37.1493,1.10000,0.90000,1.10000,0.90000
   140,'甘平凉2G    ',  24.0000,2,   1,   1,   1,1.00000, -17.5514,1.10000,0.90000,1.10000,0.90000
   141,'宁宁东G     ',  24.0000,2,   1,   1,   1,1.00000, -18.7002,1.10000,0.90000,1.10000,0.90000
   142,'甘崇信G     ',  24.0000,2,   1,   1,   1,1.00000, -17.5197,1.10000,0.90000,1.10000,0.90000
   143,'宁银星G     ',  24.0000,2,   1,   1,   1,1.00000, -17.5536,1.10000,0.90000,1.10000,0.90000
   144,'青官亭G     ',  24.0000,2,   1,   1,   1,1.00000,  -8.4490,1.10000,0.90000,1.10000,0.90000
   145,'陕延安G     ',  24.0000,2,   1,   1,   1,1.00000, -18.5493,1.10000,0.90000,1.10000,0.90000
   146,'甘白银G     ',  24.0000,2,   1,   1,   1,1.00000, -11.6896,1.10000,0.90000,1.10000,0.90000
   147,'甘沙州G     ',  24.0000,2,   1,   1,   1,1.00000,  19.8346,1.10000,0.90000,1.10000,0.90000
   148,'青格尔G     ',  24.0000,2,   1,   1,   1,1.00000,  13.0409,1.10000,0.90000,1.10000,0.90000
   149,'新乌市G     ',  24.0000,2,   1,   1,   1,1.00000,  38.6708,1.10000,0.90000,1.10000,0.90000
   150,'陕宝鸡2G    ',  24.0000,2,   1,   1,   1,1.00000, -22.4334,1.10000,0.90000,1.10000,0.90000
   151,'陕彬长G     ',  24.0000,2,   1,   1,   1,1.00000, -22.2045,1.10000,0.90000,1.10000,0.90000
   152,'新阿克G     ',  24.0000,2,   1,   1,   1,1.00000,  45.8631,1.10000,0.90000,1.10000,0.90000
   153,'宁灵武G     ',  24.0000,2,   1,   1,   1,1.00000, -20.4562,1.10000,0.90000,1.10000,0.90000
   154,'青羊曲G     ',  24.0000,2,   1,   1,   1,1.00000,  -4.9640,1.10000,0.90000,1.10000,0.90000
   155,'新喀什G     ',  24.0000,2,   1,   1,   1,1.00000,  47.0149,1.10000,0.90000,1.10000,0.90000
   156,'新三塘G     ',  24.0000,2,   1,   1,   1,1.00000,  27.4962,1.10000,0.90000,1.10000,0.90000
   157,'甘景泰G     ',  24.0000,2,   1,   1,   1,1.00000, -14.6840,1.10000,0.90000,1.10000,0.90000
   158,'青海德G     ',  24.0000,2,   1,   1,   1,1.00000,   2.7235,1.10000,0.90000,1.10000,0.90000
   159,'青柴海G     ',  24.0000,2,   1,   1,   1,1.00000,  11.1925,1.10000,0.90000,1.10000,0.90000
0 / END OF BUS DATA, BEGIN LOAD DATA
     4,'1 ',1,   1,   1,  1652.071,   600.000,     0.000,     0.000,     0.000,     0.000,   1,1,0
     4,'2 ',1,   1,   1,   107.161,    50.000,     0.000,     0.000,     0.000,     0.000,   1,1,0
     7,'1 ',1,   1,   1,  1877.587,   800.000,     0.000,     0.000,     0.000,     0.000,   1,1,0
    10,'DC',1,   1,   1,  8000.000,  3000.000,     0.000,     0.000,     0.000,     0.000,   1,1,0
    11,'1 ',1,   1,   1,   247.358,   100.000,     0.000,     0.000,     0.000,     0.000,   1,1,0
    12,'1 ',1,   1,   1,   730.877,   300.000,     0.000,     0.000,     0.000,     0.000,   1,1,0
    13,'1 ',1,   1,   1,   725.820,   300.000,     0.000,     0.000,     0.000,     0.000,   1,1,0
    17,'1 ',1,   1,   1,  1071.997,   400.000,     0.000,     0.000,     0.000,     0.000,   1,1,0
    22,'1 ',1,   1,   1,   622.662,   200.000,     0.000,     0.000,     0.000,     0.000,   1,1,0
    23,'1 ',1,   1,   1,   783.990,   300.000,     0.000,     0.000,     0.000,     0.000,   1,1,0
    27,'1 ',1,   1,   1,   838.792,   300.000,     0.000,     0.000,     0.000,     0.000,   1,1,0
    28,'1 ',1,   1,   1,   636.333,   300.000,     0.000,     0.000,     0.000,     0.000,   1,1,0
    30,'DC',1,   1,   1,  8000.000,  3000.000,     0.000,     0.000,     0.000,     0.000,   1,1,0
    32,'DC',1,   1,   1,  4000.000,  1500.000,     0.000,     0.000,     0.000,     0.000,   1,1,0
    42,'1 ',1,   1,   1,    71.429,     0.000,     0.000,     0.000,     0.000,     0.000,   1,1,0
    47,'1 ',1,   1,   1,  1624.952,   600.000,     0.000,     0.000,     0.000,     0.000,   1,1,0
    48,'1 ',1,   1,   1,   459.139,   200.000,     0.000,     0.000,     0.000,     0.000,   1,1,0
    50,'1 ',1,   1,   1,  1156.896,   500.000,     0.000,     0.000,     0.000,     0.000,   1,1,0
    53,'1 ',1,   1,   1,   339.482,   100.000,     0.000,     0.000,     0.000,     0.000,   1,1,0
    59,'1 ',1,   1,   1,   550.308,   200.000,     0.000,     0.000,     0.000,     0.000,   1,1,0
    60,'1 ',1,   1,   1,  1393.916,   600.000,     0.000,     0.000,     0.000,     0.000,   1,1,0
    63,'1 ',1,   1,   1,   358.390,   100.000,     0.000,     0.000,     0.000,     0.000,   1,1,0
    65,'1 ',1,   1,   1,  2091.593,  1000.000,     0.000,     0.000,     0.000,     0.000,   1,1,0
    66,'1 ',1,   1,   1,  1680.713,   600.000,     0.000,     0.000,     0.000,     0.000,   1,1,0
    67,'1 ',1,   1,   1,   443.118,   200.000,     0.000,     0.000,     0.000,     0.000,   1,1,0
    67,'DC',1,   1,   1,   720.000,   360.000,     0.000,     0.000,     0.000,     0.000,   1,1,0
    69,'1 ',1,   1,   1,   325.511,   100.000,     0.000,     0.000,     0.000,     0.000,   1,1,0
    70,'1 ',1,   1,   1,    85.665,    30.000,     0.000,     0.000,     0.000,     0.000,   1,1,0
    72,'1 ',1,   1,   1,    25.832,     0.000,     0.000,     0.000,     0.000,     0.000,   1,1,0
    75,'1 ',1,   1,   1,   119.997,    50.000,     0.000,     0.000,     0.000,     0.000,   1,1,0
    80,'1 ',1,   1,   1,    90.363,     0.000,     0.000,     0.000,     0.000,     0.000,   1,1,0
    81,'1 ',1,   1,   1,    24.460,     0.000,     0.000,     0.000,     0.000,     0.000,   1,1,0
    84,'1 ',1,   1,   1,    27.008,     0.000,     0.000,     0.000,     0.000,     0.000,   1,1,0
    85,'1 ',1,   1,   1,   220.271,   100.000,     0.000,     0.000,     0.000,     0.000,   1,1,0
    88,'1 ',1,   1,   1,   323.947,   100.000,     0.000,     0.000,     0.000,     0.000,   1,1,0
    89,'DC',1,   1,   1,  8000.000,  3000.000,     0.000,     0.000,     0.000,     0.000,   1,1,0
    93,'1 ',1,   1,   1,   126.635,    50.000,     0.000,     0.000,     0.000,     0.000,   1,1,0
   103,'1 ',1,   1,   1,  3000.000,  1000.000,     0.000,     0.000,     0.000,     0.000,   1,1,0
   103,'DC',1,   1,   1,  6000.000,  2000.000,     0.000,     0.000,     0.000,     0.000,   1,1,0
0 / END OF LOAD DATA, BEGIN FIXED SHUNT DATA
    10,'1 ',1,     0.000,  3000.000
    30,'1 ',1,     0.000,  2000.000
    32,'1 ',1,     0.000,  1000.000
    89,'1 ',1,     0.000,  3000.000
   103,'1 ',1,     0.000,  1500.000
0 / END OF FIXED SHUNT DATA, BEGIN GENERATOR DATA
   107,'1 ',  1200.000,   867.894,  9999.000, -9999.000,1.00000,     0,  1000.000, 0.00000E+0, 1.00000E+0, 0.00000E+0, 0.00000E+0,1.00000,1,  100.0,  1320.000,     0.000,   1,1.0000
   107,'2 ',  1200.000,   867.894,  9999.000, -9999.000,1.00000,     0,  1000.000, 0.00000E+0, 1.00000E+0, 0.00000E+0, 0.00000E+0,1.00000,1,  100.0,  1320.000,     0.000,   1,1.0000
   107,'3 ',  1200.000,   867.894,  9999.000, -9999.000,1.00000,     0,  1000.000, 0.00000E+0, 1.00000E+0, 0.00000E+0, 0.00000E+0,1.00000,1,  100.0,  1320.000,     0.000,   1,1.0000
   107,'4 ',  1200.000,   867.894,  9999.000, -9999.000,1.00000,     0,  1000.000, 0.00000E+0, 1.00000E+0, 0.00000E+0, 0.00000E+0,1.00000,1,  100.0,  1320.000,     0.000,   1,1.0000
   107,'5 ',  1200.000,   867.894,  9999.000, -9999.000,1.00000,     0,  1000.000, 0.00000E+0, 1.00000E+0, 0.00000E+0, 0.00000E+0,1.00000,1,  100.0,  1320.000,     0.000,   1,1.0000
   108,'1 ',  1200.000,   402.290,  9999.000, -9999.000,1.00000,     0,  1000.000, 0.00000E+0, 1.00000E+0, 0.00000E+0, 0.00000E+0,1.00000,1,  100.0,  1320.000,     0.000,   1,1.0000
   108,'2 ',  1200.000,   402.290,  9999.000, -9999.000,1.00000,     0,  1000.000, 0.00000E+0, 1.00000E+0, 0.00000E+0, 0.00000E+0,1.00000,1,  100.0,  1320.000,     0.000,   1,1.0000
   108,'3 ',  1200.000,   402.290,  9999.000, -9999.000,1.00000,     0,  1000.000, 0.00000E+0, 1.00000E+0, 0.00000E+0, 0.00000E+0,1.00000,1,  100.0,  1320.000,     0.000,   1,1.0000
   108,'4 ',   400.000,   134.097,  9999.000, -9999.000,1.00000,     0,  1000.000, 0.00000E+0, 1.00000E+0, 0.00000E+0, 0.00000E+0,1.00000,1,  100.0,   600.000,     0.000,   1,1.0000
   109,'1 ',  1200.000,   327.447,  9999.000, -9999.000,1.00000,     0,  1000.000, 0.00000E+0, 1.00000E+0, 0.00000E+0, 0.00000E+0,1.00000,1,  100.0,  1320.000,     0.000,   1,1.0000
   109,'2 ',  1200.000,   327.447,  9999.000, -9999.000,1.00000,     0,  1000.000, 0.00000E+0, 1.00000E+0, 0.00000E+0, 0.00000E+0,1.00000,1,  100.0,  1320.000,     0.000,   1,1.0000
   109,'3 ',  1200.000,   327.447,  9999.000, -9999.000,1.00000,     0,  1000.000, 0.00000E+0, 1.00000E+0, 0.00000E+0, 0.00000E+0,1.00000,1,  100.0,  1320.000,     0.000,   1,1.0000
   110,'1 ',  1200.000,   346.313,  9999.000, -9999.000,1.00000,     0,  1000.000, 0.00000E+0, 1.00000E+0, 0.00000E+0, 0.00000E+0,1.00000,1,  100.0,  1320.000,     0.000,   1,1.0000
   110,'2 ',  1200.000,   346.313,  9999.000, -9999.000,1.00000,     0,  1000.000, 0.00000E+0, 1.00000E+0, 0.00000E+0, 0.00000E+0,1.00000,1,  100.0,  1320.000,     0.000,   1,1.0000
   110,'3 ',  1200.000,   346.313,  9999.000, -9999.000,1.00000,     0,  1000.000, 0.00000E+0, 1.00000E+0, 0.00000E+0, 0.00000E+0,1.00000,1,  100.0,  1320.000,     0.000,   1,1.0000
   111,'1 ',  1200.000,   337.677,  9999.000, -9999.000,1.00000,     0,  1000.000, 0.00000E+0, 1.00000E+0, 0.00000E+0, 0.00000E+0,1.00000,1,  100.0,  1320.000,     0.000,   1,1.0000
   111,'2 ',  1200.000,   337.677,  9999.000, -9999.000,1.00000,     0,  1000.000, 0.00000E+0, 1.00000E+0, 0.00000E+0, 0.00000E+0,1.00000,1,  100.0,  1320.000,     0.000,   1,1.0000
   111,'3 ',  1200.000,   337.677,  9999.000, -9999.000,1.00000,     0,  1000.000, 0.00000E+0, 1.00000E+0, 0.00000E+0, 0.00000E+0,1.00000,1,  100.0,  1320.000,     0.000,   1,1.0000
   112,'1 ',  1200.000,   194.598,  9999.000, -9999.000,1.00000,     0,  1000.000, 0.00000E+0, 1.00000E+0, 0.00000E+0, 0.00000E+0,1.00000,1,  100.0,  1320.000,     0.000,   1,1.0000
   112,'2 ',  1200.000,   194.598,  9999.000, -9999.000,1.00000,     0,  1000.000, 0.00000E+0, 1.00000E+0, 0.00000E+0, 0.00000E+0,1.00000,1,  100.0,  1320.000,     0.000,   1,1.0000
   113,'1 ',  1000.000,   118.721,  9999.000, -9999.000,1.00000,     0,  1000.000, 0.00000E+0, 1.00000E+0, 0.00000E+0, 0.00000E+0,1.00000,1,  100.0,  1320.000,     0.000,   1,1.0000
   113,'2 ',  1000.000,   118.721,  9999.000, -9999.000,1.00000,     0,  1000.000, 0.00000E+0, 1.00000E+0, 0.00000E+0, 0.00000E+0,1.00000,1,  100.0,  1320.000,     0.000,   1,1.0000
   114,'1 ',  1000.000,   114.509,  9999.000, -9999.000,1.00000,     0,  1000.000, 0.00000E+0, 1.00000E+0, 0.00000E+0, 0.00000E+0,1.00000,1,  100.0,  1320.000,     0.000,   1,1.0000
   114,'2 ',  1000.000,   114.509,  9999.000, -9999.000,1.00000,     0,  1000.000, 0.00000E+0, 1.00000E+0, 0.00000E+0, 0.00000E+0,1.00000,1,  100.0,  1320.000,     0.000,   1,1.0000
   115,'1 ',  1200.000,    95.737,  9999.000, -9999.000,1.00000,     0,  1000.000, 0.00000E+0, 1.00000E+0, 0.00000E+0, 0.00000E+0,1.00000,1,  100.0,  1320.000,     0.000,   1,1.0000
   115,'2 ',   300.000,    23.934,  9999.000, -9999.000,1.00000,     0,  1000.000, 0.00000E+0, 1.00000E+0, 0.00000E+0, 0.00000E+0,1.00000,1,  100.0,   600.000,     0.000,   1,1.0000
   116,'1 ',  1200.000,    64.174,  9999.000, -9999.000,1.00000,     0,  1000.000, 0.00000E+0, 1.00000E+0, 0.00000E+0, 0.00000E+0,1.00000,1,  100.0,  1320.000,     0.000,   1,1.0000
   117,'1 ',  1200.000,    39.891,  9999.000, -9999.000,1.00000,     0,  1000.000, 0.00000E+0, 1.00000E+0, 0.00000E+0, 0.00000E+0,1.00000,1,  100.0,  1320.000,     0.000,   1,1.0000
   118,'1 ',  1200.000,    32.307,  9999.000, -9999.000,1.00000,     0,  1000.000, 0.00000E+0, 1.00000E+0, 0.00000E+0, 0.00000E+0,1.00000,1,  100.0,  1320.000,     0.000,   1,1.0000
   119,'1 ',  1200.000,    41.546,  9999.000, -9999.000,1.00000,     0,  1000.000, 0.00000E+0, 1.00000E+0, 0.00000E+0, 0.00000E+0,1.00000,1,  100.0,  1320.000,     0.000,   1,1.0000
   120,'1 ',  1200.000,    52.065,  9999.000, -9999.000,1.00000,     0,  1000.000, 0.00000E+0, 1.00000E+0, 0.00000E+0, 0.00000E+0,1.00000,1,  100.0,  1320.000,     0.000,   1,1.0000
   121,'1 ',  1200.000,    51.948,  9999.000, -9999.000,1.00000,     0,  1000.000, 0.00000E+0, 1.00000E+0, 0.00000E+0, 0.00000E+0,1.00000,1,  100.0,  1320.000,     0.000,   1,1.0000
   122,'1 ',  1200.000,    35.617,  9999.000, -9999.000,1.00000,     0,  1000.000, 0.00000E+0, 1.00000E+0, 0.00000E+0, 0.00000E+0,1.00000,1,  100.0,  1320.000,     0.000,   1,1.0000
   123,'1 ',  1200.000,    37.063,  9999.000, -9999.000,1.00000,     0,  1000.000, 0.00000E+0, 1.00000E+0, 0.00000E+0, 0.00000E+0,1.00000,1,  100.0,  1320.000,     0.000,   1,1.0000
   124,'1 ',  1200.000,     7.999,  9999.000, -9999.000,1.00000,     0,  1000.000, 0.00000E+0, 1.00000E+0, 0.00000E+0, 0.00000E+0,1.00000,1,  100.0,  1320.000,     0.000,   1,1.0000
   125,'1 ',  1200.000,   -29.607,  9999.000, -9999.000,1.00000,     0,  1000.000, 0.00000E+0, 1.00000E+0, 0.00000E+0, 0.00000E+0,1.00000,1,  100.0,  1320.000,     0.000,   1,1.0000
   126,'1 ',   911.537,  -142.111,  9999.000, -9999.000,1.00000,     0,  1000.000, 0.00000E+0, 1.00000E+0, 0.00000E+0, 0.00000E+0,1.00000,1,  100.0,  1320.000,     0.000,   1,1.0000
   127,'1 ',  1200.000,   -31.168,  9999.000, -9999.000,1.00000,     0,  1000.000, 0.00000E+0, 1.00000E+0, 0.00000E+0, 0.00000E+0,1.00000,1,  100.0,  1320.000,     0.000,   1,1.0000
   128,'1 ',  1200.000,    -8.844,  9999.000, -9999.000,1.00000,     0,  1000.000, 0.00000E+0, 1.00000E+0, 0.00000E+0, 0.00000E+0,1.00000,1,  100.0,  1320.000,     0.000,   1,1.0000
   129,'1 ',  1000.000,   -50.279,  9999.000, -9999.000,1.00000,     0,  1000.000, 0.00000E+0, 1.00000E+0, 0.00000E+0, 0.00000E+0,1.00000,1,  100.0,  1320.000,     0.000,   1,1.0000
   130,'1 ',  1000.000,    -7.535,  9999.000, -9999.000,1.00000,     0,  1000.000, 0.00000E+0, 1.00000E+0, 0.00000E+0, 0.00000E+0,1.00000,1,  100.0,  1320.000,     0.000,   1,1.0000
   131,'1 ',   900.000,  -186.791,  9999.000, -9999.000,1.00000,     0,  1000.000, 0.00000E+0, 1.00000E+0, 0.00000E+0, 0.00000E+0,1.00000,1,  100.0,  1000.000,     0.000,   1,1.0000
   132,'1 ',   600.000,   136.585,  9999.000, -9999.000,1.00000,     0,  1000.000, 0.00000E+0, 1.00000E+0, 0.00000E+0, 0.00000E+0,1.00000,1,  100.0,   750.000,     0.000,   1,1.0000
   133,'1 ',   600.000,  -127.853,  9999.000, -9999.000,1.00000,     0,  1000.000, 0.00000E+0, 1.00000E+0, 0.00000E+0, 0.00000E+0,1.00000,1,  100.0,   750.000,     0.000,   1,1.0000
   134,'1 ',   600.000,   -89.082,  9999.000, -9999.000,1.00000,     0,  1000.000, 0.00000E+0, 1.00000E+0, 0.00000E+0, 0.00000E+0,1.00000,1,  100.0,   750.000,     0.000,   1,1.0000
   135,'1 ',   600.000,  -133.023,  9999.000, -9999.000,1.00000,     0,  1000.000, 0.00000E+0, 1.00000E+0, 0.00000E+0, 0.00000E+0,1.00000,1,  100.0,   750.000,     0.000,   1,1.0000
   136,'1 ',   600.000,   -41.205,  9999.000, -9999.000,1.00000,     0,  1000.000, 0.00000E+0, 1.00000E+0, 0.00000E+0, 0.00000E+0,1.00000,1,  100.0,   750.000,     0.000,   1,1.0000
   137,'1 ',   550.000,   -41.313,  9999.000, -9999.000,1.00000,     0,  1000.000, 0.00000E+0, 1.00000E+0, 0.00000E+0, 0.00000E+0,1.00000,1,  100.0,   750.000,     0.000,   1,1.0000
   138,'1 ',   550.000,   -61.655,  9999.000, -9999.000,1.00000,     0,  1000.000, 0.00000E+0, 1.00000E+0, 0.00000E+0, 0.00000E+0,1.00000,1,  100.0,   750.000,     0.000,   1,1.0000
   139,'1 ',   550.000,   -45.771,  9999.000, -9999.000,1.00000,     0,  1000.000, 0.00000E+0, 1.00000E+0, 0.00000E+0, 0.00000E+0,1.00000,1,  100.0,   750.000,     0.000,   1,1.0000
   140,'1 ',   500.000,  -135.336,  9999.000, -9999.000,1.00000,     0,  1000.000, 0.00000E+0, 1.00000E+0, 0.00000E+0, 0.00000E+0,1.00000,1,  100.0,   600.000,     0.000,   1,1.0000
   141,'1 ',   500.000,   -32.809,  9999.000, -9999.000,1.00000,     0,  1000.000, 0.00000E+0, 1.00000E+0, 0.00000E+0, 0.00000E+0,1.00000,1,  100.0,   600.000,     0.000,   1,1.0000
   142,'1 ',   500.000,  -132.737,  9999.000, -9999.000,1.00000,     0,  1000.000, 0.00000E+0, 1.00000E+0, 0.00000E+0, 0.00000E+0,1.00000,1,  100.0,   600.000,     0.000,   1,1.0000
   143,'1 ',   500.000,   -47.000,  9999.000, -9999.000,1.00000,     0,  1000.000, 0.00000E+0, 1.00000E+0, 0.00000E+0, 0.00000E+0,1.00000,1,  100.0,   600.000,     0.000,   1,1.0000
   144,'1 ',   500.000,  -150.125,  9999.000, -9999.000,1.00000,     0,  1000.000, 0.00000E+0, 1.00000E+0, 0.00000E+0, 0.00000E+0,1.00000,1,  100.0,   600.000,     0.000,   1,1.0000
   145,'1 ',   500.000,  -113.416,  9999.000, -9999.000,1.00000,     0,  1000.000, 0.00000E+0, 1.00000E+0, 0.00000E+0, 0.00000E+0,1.00000,1,  100.0,   600.000,     0.000,   1,1.0000
   146,'1 ',   600.000,  -179.948,  9999.000, -9999.000,1.00000,     0,  1000.000, 0.00000E+0, 1.00000E+0, 0.00000E+0, 0.00000E+0,1.00000,1,  100.0,   750.000,     0.000,   1,1.0000
   147,'1 ',   400.000,   -81.034,  9999.000, -9999.000,1.00000,     0,  1000.000, 0.00000E+0, 1.00000E+0, 0.00000E+0, 0.00000E+0,1.00000,1,  100.0,   600.000,     0.000,   1,1.0000
   148,'1 ',   400.000,   -80.058,  9999.000, -9999.000,1.00000,     0,  1000.000, 0.00000E+0, 1.00000E+0, 0.00000E+0, 0.00000E+0,1.00000,1,  100.0,   600.000,     0.000,   1,1.0000
   149,'1 ',   400.000,   -65.153,  9999.000, -9999.000,1.00000,     0,  1000.000, 0.00000E+0, 1.00000E+0, 0.00000E+0, 0.00000E+0,1.00000,1,  100.0,   600.000,     0.000,   1,1.0000
   150,'1 ',   300.000,  -148.286,  9999.000, -9999.000,1.00000,     0,  1000.000, 0.00000E+0, 1.00000E+0, 0.00000E+0, 0.00000E+0,1.00000,1,  100.0,   400.000,     0.000,   1,1.0000
   151,'1 ',   300.000,  -166.247,  9999.000, -9999.000,1.00000,     0,  1000.000, 0.00000E+0, 1.00000E+0, 0.00000E+0, 0.00000E+0,1.00000,1,  100.0,   400.000,     0.000,   1,1.0000
   152,'1 ',   300.000,  -134.960,  9999.000, -9999.000,1.00000,     0,  1000.000, 0.00000E+0, 1.00000E+0, 0.00000E+0, 0.00000E+0,1.00000,1,  100.0,   400.000,     0.000,   1,1.0000
   153,'1 ',   300.000,   -45.305,  9999.000, -9999.000,1.00000,     0,  1000.000, 0.00000E+0, 1.00000E+0, 0.00000E+0, 0.00000E+0,1.00000,1,  100.0,   400.000,     0.000,   1,1.0000
   154,'1 ',   250.000,  -234.959,  9999.000, -9999.000,1.00000,     0,  1000.000, 0.00000E+0, 1.00000E+0, 0.00000E+0, 0.00000E+0,1.00000,1,  100.0,   300.000,     0.000,   1,1.0000
   155,'1 ',   250.000,  -185.264,  9999.000, -9999.000,1.00000,     0,  1000.000, 0.00000E+0, 1.00000E+0, 0.00000E+0, 0.00000E+0,1.00000,1,  100.0,   300.000,     0.000,   1,1.0000
   156,'1 ',   200.000,   -37.096,  9999.000, -9999.000,1.00000,     0,  1000.000, 0.00000E+0, 1.00000E+0, 0.00000E+0, 0.00000E+0,1.00000,1,  100.0,   300.000,     0.000,   1,1.0000
   157,'1 ',   200.000,  -186.036,  9999.000, -9999.000,1.00000,     0,  1000.000, 0.00000E+0, 1.00000E+0, 0.00000E+0, 0.00000E+0,1.00000,1,  100.0,   300.000,     0.000,   1,1.0000
   158,'1 ',   200.000,   -67.133,  9999.000, -9999.000,1.00000,     0,  1000.000, 0.00000E+0, 1.00000E+0, 0.00000E+0, 0.00000E+0,1.00000,1,  100.0,   300.000,     0.000,   1,1.0000
   159,'1 ',   200.000,   -90.103,  9999.000, -9999.000,1.00000,     0,  1000.000, 0.00000E+0, 1.00000E+0, 0.00000E+0, 0.00000E+0,1.00000,1,  100.0,   300.000,     0.000,   1,1.0000
0 / END OF GENERATOR DATA, BEGIN BRANCH DATA
     1,     8,'1 ', 1.54000E-4, 3.09200E-3,   1.92725,    0.00,    0.00,    0.00,  0.00000,  0.00000,  0.00000,  0.00000,1,1,   0.00,   1,1.0000
     1,    11,'1 ', 3.02000E-4, 6.39200E-3,   4.13952,    0.00,    0.00,    0.00,  0.00000,  0.00000,  0.00000,  0.00000,1,1,   0.00,   1,1.0000
     1,    17,'1 ', 2.87000E-4, 6.12800E-3,   4.14224,    0.00,    0.00,    0.00,  0.00000,  0.00000,  0.00000,  0.00000,1,1,   0.00,   1,1.0000
     1,    17,'2 ', 2.92000E-4, 6.10300E-3,   4.24992,    0.00,    0.00,    0.00,  0.00000,  0.00000,  0.00000,  0.00000,1,1,   0.00,   1,1.0000
     1,    23,'1 ', 3.32000E-4, 7.03100E-3,   4.67492,    0.00,    0.00,    0.00,  0.00000, -1.00000,  0.00000, -1.00000,1,1,   0.00,   1,1.0000
     1,    23,'2 ', 3.32000E-4, 7.03100E-3,   4.67492,    0.00,    0.00,    0.00,  0.00000, -1.00000,  0.00000, -1.00000,1,1,   0.00,   1,1.0000
     2,    10,'1 ', 4.00000E-5, 8.52000E-4,   0.56666,    0.00,    0.00,    0.00,  0.00000,  0.00000,  0.00000,  0.00000,1,1,   0.00,   1,1.0000
     2,    10,'2 ', 4.00000E-5, 8.52000E-4,   0.56666,    0.00,    0.00,    0.00,  0.00000,  0.00000,  0.00000,  0.00000,1,1,   0.00,   1,1.0000
     3,    13,'1 ', 3.70000E-5, 7.88000E-4,   0.52416,    0.00,    0.00,    0.00,  0.00000,  0.00000,  0.00000,  0.00000,1,1,   0.00,   1,1.0000
     4,    15,'1 ', 1.04000E-4, 2.56200E-3,   1.72925,    0.00,    0.00,    0.00,  0.00000,  0.00000,  0.00000,  0.00000,1,1,   0.00,   1,1.0000
     4,    15,'2 ', 1.04000E-4, 2.56200E-3,   4.75992,    0.00,    0.00,    0.00,  0.00000,  0.00000,  0.00000,  0.00000,1,1,   0.00,   1,1.0000
     4,    16,'1 ', 3.38000E-4, 7.15800E-3,  10.53466,    0.00,    0.00,    0.00,  0.00000, -3.00000,  0.00000, -3.00000,1,2,   0.00,   1,1.0000
     4,    16,'2 ', 3.38000E-4, 7.15800E-3,  11.00702,    0.00,    0.00,    0.00,  0.00000,  0.00000,  0.00000,  0.00000,1,1,   0.00,   1,1.0000
     4,    80,'1 ', 8.08000E-4, 1.55490E-2,  10.53466,    0.00,    0.00,    0.00,  0.00000, -3.00000,  0.00000, -3.00000,1,1,   0.00,   1,1.0000
     4,    80,'2 ', 8.19000E-4, 1.55550E-2,   1.72925,    0.00,    0.00,    0.00,  0.00000,  0.00000,  0.00000,  0.00000,1,1,   0.00,   1,1.0000
     7,     9,'1 ', 8.17000E-4, 1.68190E-2,  11.00844,    0.00,    0.00,    0.00,  0.00000, -3.00000,  0.00000, -3.00000,1,1,   0.00,   1,1.0000
     7,     9,'2 ', 8.51000E-4, 1.67730E-2,   6.16396,    0.00,    0.00,    0.00,  0.00000, -2.00000,  0.00000, -2.00000,1,1,   0.00,   1,1.0000
     7,    17,'1 ', 3.75000E-4, 8.28000E-3,   6.16396,    0.00,    0.00,    0.00,  0.00000, -2.00000,  0.00000, -2.00000,1,2,   0.00,   1,1.0000
     7,    17,'2 ', 3.81000E-4, 8.27400E-3,   4.19326,    0.00,    0.00,    0.00,  0.00000, -2.00000,  0.00000, -2.00000,1,2,   0.00,   1,1.0000
     9,    15,'1 ', 3.70000E-4, 9.13100E-3,   4.93674,    0.00,    0.00,    0.00,  0.00000,  0.00000,  0.00000,  0.00000,1,1,   0.00,   1,1.0000
     9,    15,'2 ', 3.70000E-4, 9.13100E-3,   7.62152,    0.00,    0.00,    0.00,  0.00000,  0.00000,  0.00000,  0.00000,1,1,   0.00,   1,1.0000
    10,    15,'1 ', 4.00000E-5, 8.52000E-4,   7.62152,    0.00,    0.00,    0.00,  0.00000,  0.00000,  0.00000,  0.00000,1,2,   0.00,   1,1.0000
    10,    15,'2 ', 4.00000E-5, 8.52000E-4,   4.93674,    0.00,    0.00,    0.00,  0.00000,  0.00000,  0.00000,  0.00000,1,2,   0.00,   1,1.0000
    10,    15,'3 ', 4.00000E-5, 8.52000E-4,   6.10818,    0.00,    0.00,    0.00,  0.00000,  0.00000,  0.00000,  0.00000,1,2,   0.00,   1,1.0000
    11,    12,'1 ', 3.57000E-4, 7.31300E-3,   6.10818,    0.00,    0.00,    0.00,  0.00000,  0.00000,  0.00000,  0.00000,1,1,   0.00,   1,1.0000
    11,    12,'2 ', 3.57000E-4, 7.31300E-3,   0.45332,    0.00,    0.00,    0.00,  0.00000,  0.00000,  0.00000,  0.00000,1,2,   0.00,   1,1.0000
    11,    13,'1 ', 5.49000E-4, 1.09000E-2,   0.56666,    0.00,    0.00,    0.00,  0.00000,  0.00000,  0.00000,  0.00000,1,1,   0.00,   1,1.0000
    11,    13,'2 ', 5.49000E-4, 1.09000E-2,   0.56666,    0.00,    0.00,    0.00,  0.00000,  0.00000,  0.00000,  0.00000,1,1,   0.00,   1,1.0000
    11,    40,'1 ', 2.98000E-4, 6.30600E-3,   0.56666,    0.00,    0.00,    0.00,  0.00000,  0.00000,  0.00000,  0.00000,1,1,   0.00,   1,1.0000
    11,    40,'2 ', 2.83000E-4, 5.99600E-3,   4.75992,    0.00,    0.00,    0.00,  0.00000,  0.00000,  0.00000,  0.00000,1,2,   0.00,   1,1.0000
    12,    53,'1 ', 4.42000E-4, 9.04800E-3,   8.08978,    0.00,    0.00,    0.00,  0.00000, -3.00000,  0.00000, -3.00000,1,1,   0.00,   1,1.0000
    12,    53,'2 ', 4.42000E-4, 9.04800E-3,   8.10611,    0.00,    0.00,    0.00,  0.00000, -3.00000,  0.00000, -3.00000,1,1,   0.00,   1,1.0000
    13,    14,'1 ', 3.20000E-5, 6.82000E-4,   9.32150,    0.00,    0.00,    0.00,  0.00000, -4.00000,  0.00000, -4.00000,1,2,   0.00,   1,1.0000
    13,    18,'1 ', 2.47000E-4, 5.24100E-3,   9.32150,    0.00,    0.00,    0.00,  0.00000, -4.00000,  0.00000, -4.00000,1,2,   0.00,   1,1.0000
    13,    18,'2 ', 2.47000E-4, 5.24100E-3,   5.48438,    0.00,    0.00,    0.00,  0.00000, -2.00000,  0.00000, -2.00000,1,2,   0.00,   1,1.0000
    13,    60,'1 ', 3.44000E-4, 7.23100E-3,   5.47604,    0.00,    0.00,    0.00,  0.00000, -2.00000,  0.00000, -2.00000,1,2,   0.00,   1,1.0000
    13,    60,'2 ', 3.57000E-4, 7.20000E-3,   3.48493,    0.00,    0.00,    0.00,  0.00000, -1.00000,  0.00000, -1.00000,1,2,   0.00,   1,1.0000
    16,    51,'1 ', 6.62000E-4, 1.40190E-2,   3.48493,    0.00,    0.00,    0.00,  0.00000, -1.00000,  0.00000, -1.00000,1,1,   0.00,   1,1.0000
    16,    51,'2 ', 6.62000E-4, 1.40190E-2,   0.21250,    0.00,    0.00,    0.00,  0.00000,  0.00000,  0.00000,  0.00000,1,1,   0.00,   1,1.0000
    16,    96,'1 ', 6.03000E-4, 1.29250E-2,   0.21250,    0.00,    0.00,    0.00,  0.00000,  0.00000,  0.00000,  0.00000,1,1,   0.00,   1,1.0000
    16,    96,'2 ', 6.61000E-4, 1.29380E-2,   0.76499,    0.00,    0.00,    0.00,  0.00000,  0.00000,  0.00000,  0.00000,1,1,   0.00,   1,1.0000
    17,    50,'1 ', 2.03000E-4, 5.63500E-3,   0.62332,    0.00,    0.00,    0.00,  0.00000,  0.00000,  0.00000,  0.00000,1,2,   0.00,   1,1.0000
    17,    50,'2 ', 2.03000E-4, 5.63500E-3,   1.01998,    0.00,    0.00,    0.00,  0.00000,  0.00000,  0.00000,  0.00000,1,2,   0.00,   1,1.0000
    18,    30,'1 ', 4.22000E-4, 8.94800E-3,   1.18998,    0.00,    0.00,    0.00,  0.00000,  0.00000,  0.00000,  0.00000,1,2,   0.00,   1,1.0000
    18,    30,'2 ', 4.22000E-4, 8.94800E-3,   1.18998,    0.00,    0.00,    0.00,  0.00000,  0.00000,  0.00000,  0.00000,1,2,   0.00,   1,1.0000
    19,    22,'1 ', 1.50000E-5, 3.20000E-4,   0.84998,    0.00,    0.00,    0.00,  0.00000,  0.00000,  0.00000,  0.00000,1,1,   0.00,   1,1.0000
    19,    22,'2 ', 1.50000E-5, 3.20000E-4,   0.84998,    0.00,    0.00,    0.00,  0.00000,  0.00000,  0.00000,  0.00000,1,1,   0.00,   1,1.0000
    20,    21,'1 ', 4.40000E-5, 9.37000E-4,   2.47147,    0.00,    0.00,    0.00,  0.00000,  0.00000,  0.00000,  0.00000,1,2,   0.00,   1,1.0000
    20,    30,'1 ', 5.40000E-5, 1.15000E-3,   2.48203,    0.00,    0.00,    0.00,  0.00000,  0.00000,  0.00000,  0.00000,1,1,   0.00,   1,1.0000
    21,    30,'1 ', 7.20000E-5, 1.53400E-3,   0.55782,    0.00,    0.00,    0.00,  0.00000,  0.00000,  0.00000,  0.00000,1,1,   0.00,   1,1.0000
    22,    26,'1 ', 8.40000E-5, 1.79000E-3,   0.55782,    0.00,    0.00,    0.00,  0.00000,  0.00000,  0.00000,  0.00000,1,1,   0.00,   1,1.0000
    22,    26,'2 ', 8.40000E-5, 1.79000E-3,   0.55782,    0.00,    0.00,    0.00,  0.00000,  0.00000,  0.00000,  0.00000,1,1,   0.00,   1,1.0000
    22,    27,'1 ', 2.06000E-4, 5.32500E-3,   0.55782,    0.00,    0.00,    0.00,  0.00000,  0.00000,  0.00000,  0.00000,1,2,   0.00,   1,1.0000
    22,    27,'2 ', 2.06000E-4, 5.32500E-3,   1.21831,    0.00,    0.00,    0.00,  0.00000,  0.00000,  0.00000,  0.00000,1,2,   0.00,   1,1.0000
    23,    26,'1 ', 6.00000E-5, 1.27800E-3,   1.21831,    0.00,    0.00,    0.00,  0.00000,  0.00000,  0.00000,  0.00000,1,1,   0.00,   1,1.0000
    23,    26,'2 ', 6.00000E-5, 1.27800E-3,   1.21831,    0.00,    0.00,    0.00,  0.00000,  0.00000,  0.00000,  0.00000,1,1,   0.00,   1,1.0000
    23,    30,'1 ', 1.75000E-4, 3.71700E-3,   2.24410,    0.00,    0.00,    0.00,  0.00000,  0.00000,  0.00000,  0.00000,1,1,   0.00,   1,1.0000
    23,    30,'2 ', 1.82000E-4, 3.61700E-3,   2.24410,    0.00,    0.00,    0.00,  0.00000,  0.00000,  0.00000,  0.00000,1,1,   0.00,   1,1.0000
    24,    32,'1 ', 4.00000E-5, 8.26000E-4,   2.99213,    0.00,    0.00,    0.00,  0.00000, -1.00000,  0.00000, -1.00000,1,1,   0.00,   1,1.0000
    24,    32,'2 ', 4.00000E-5, 8.26000E-4,   2.99213,    0.00,    0.00,    0.00,  0.00000, -1.00000,  0.00000, -1.00000,1,1,   0.00,   1,1.0000
    25,    32,'1 ', 4.00000E-5, 8.26000E-4,   1.17581,    0.00,    0.00,    0.00,  0.00000,  0.00000,  0.00000,  0.00000,1,1,   0.00,   1,1.0000
    25,    32,'2 ', 4.00000E-5, 8.26000E-4,   1.17581,    0.00,    0.00,    0.00,  0.00000,  0.00000,  0.00000,  0.00000,1,1,   0.00,   1,1.0000
    26,    28,'1 ', 8.30000E-5, 1.76800E-3,   5.94989,    0.00,    0.00,    0.00,  0.00000, -2.00000,  0.00000, -2.00000,1,2,   0.00,   1,1.0000
    26,    28,'2 ', 8.30000E-5, 1.76800E-3,   5.94989,    0.00,    0.00,    0.00,  0.00000, -2.00000,  0.00000, -2.00000,1,2,   0.00,   1,1.0000
    26,    37,'1 ', 2.00000E-5, 4.26000E-4,   1.72755,    0.00,    0.00,    0.00,  0.00000,  0.00000,  0.00000,  0.00000,1,2,   0.00,   1,1.0000
    26,    37,'2 ', 2.00000E-5, 4.26000E-4,   1.64750,    0.00,    0.00,    0.00,  0.00000,  0.00000,  0.00000,  0.00000,1,2,   0.00,   1,1.0000
    27,    32,'1 ', 1.55000E-4, 3.99400E-3,   0.19833,    0.00,    0.00,    0.00,  0.00000,  0.00000,  0.00000,  0.00000,1,1,   0.00,   1,1.0000
    27,    32,'2 ', 1.55000E-4, 3.99400E-3,   0.70832,    0.00,    0.00,    0.00,  0.00000,  0.00000,  0.00000,  0.00000,1,1,   0.00,   1,1.0000
    27,    70,'1 ', 8.60000E-5, 1.83200E-3,   1.58664,    0.00,    0.00,    0.00,  0.00000, -1.00000,  0.00000,  0.00000,1,1,   0.00,   1,1.0000
    27,    70,'2 ', 8.60000E-5, 1.83200E-3,   0.33999,    0.00,    0.00,    0.00,  0.00000,  0.00000,  0.00000,  0.00000,1,1,   0.00,   1,1.0000
    27,    70,'3 ', 8.60000E-5, 1.83200E-3,   1.52997,    0.00,    0.00,    0.00,  0.00000, -1.00000,  0.00000,  0.00000,1,1,   0.00,   1,1.0000
    30,    32,'1 ', 1.17000E-4, 2.47800E-3,   0.28333,    0.00,    0.00,    0.00,  0.00000,  0.00000,  0.00000,  0.00000,1,2,   0.00,   1,1.0000
    30,    32,'2 ', 1.13000E-4, 2.41000E-3,   0.82165,    0.00,    0.00,    0.00,  0.00000,  0.00000,  0.00000,  0.00000,1,2,   0.00,   1,1.0000
    30,    33,'1 ', 1.40000E-5, 2.98000E-4,   0.28333,    0.00,    0.00,    0.00,  0.00000,  0.00000,  0.00000,  0.00000,1,2,   0.00,   1,1.0000
    30,    34,'1 ', 1.13000E-4, 2.38600E-3,   4.09409,    0.00,    0.00,    0.00,  0.00000,  0.00000,  0.00000,  0.00000,1,2,   0.00,   1,1.0000
    30,    35,'1 ', 1.09000E-4, 2.30100E-3,   4.09409,    0.00,    0.00,    0.00,  0.00000, -1.00000,  0.00000, -1.00000,1,2,   0.00,   1,1.0000
    30,    36,'1 ', 5.80000E-5, 1.23600E-3,   3.98666,    0.00,    0.00,    0.00,  0.00000, -2.00000,  0.00000, -2.00000,1,2,   0.00,   1,1.0000
    33,    36,'1 ', 5.00000E-5, 1.06500E-3,  10.45648,    0.00,    0.00,    0.00,  0.00000, -5.00000,  0.00000, -5.00000,1,1,   0.00,   1,1.0000
    34,    35,'1 ', 2.40000E-5, 5.11000E-4,  10.37684,    0.00,    0.00,    0.00,  0.00000, -4.00000,  0.00000, -4.00000,1,2,   0.00,   1,1.0000
    38,    41,'1 ', 5.18000E-4, 1.73740E-2,   3.93826,    0.00,    0.00,    0.00,  0.00000, -2.00000,  0.00000, -2.00000,1,2,   0.00,   1,1.0000
    38,    41,'2 ', 5.32000E-4, 1.71850E-2,   4.53325,    0.00,    0.00,    0.00,  0.00000, -2.00000,  0.00000, -2.00000,1,2,   0.00,   1,1.0000
    38,    45,'1 ', 6.40000E-5, 1.34600E-3,   2.09988,    0.00,    0.00,    0.00,  0.00000, -1.00000,  0.00000, -1.00000,1,2,   0.00,   1,1.0000
    38,    45,'2 ', 6.40000E-5, 1.34600E-3,   5.07522,    0.00,    0.00,    0.00,  0.00000, -2.00000,  0.00000, -2.00000,1,2,   0.00,   1,1.0000
    38,    51,'1 ', 3.58000E-4, 7.58500E-3,   3.42827,    0.00,    0.00,    0.00,  0.00000, -1.00000,  0.00000, -1.00000,1,2,   0.00,   1,1.0000
    38,    51,'2 ', 3.58000E-4, 7.58500E-3,   3.42827,    0.00,    0.00,    0.00,  0.00000, -1.00000,  0.00000, -1.00000,1,2,   0.00,   1,1.0000
    39,    41,'1 ', 2.91000E-4, 6.15700E-3,   9.83958,    0.00,    0.00,    0.00,  0.00000, -5.00000,  0.00000, -5.00000,1,1,   0.00,   1,1.0000
    39,    41,'2 ', 2.91000E-4, 6.15700E-3,   9.90580,    0.00,    0.00,    0.00,  0.00000, -5.00000,  0.00000, -5.00000,1,1,   0.00,   1,1.0000
    40,    43,'1 ', 3.83000E-4, 7.64400E-3,   0.89532,    0.00,    0.00,    0.00,  0.00000,  0.00000,  0.00000,  0.00000,1,2,   0.00,   1,1.0000
    40,    47,'1 ', 4.33000E-4, 6.54600E-3,   0.89532,    0.00,    0.00,    0.00,  0.00000,  0.00000,  0.00000,  0.00000,1,2,   0.00,   1,1.0000
    41,    44,'1 ', 4.16000E-4, 1.60020E-2,   0.63182,    0.00,    0.00,    0.00,  0.00000,  0.00000,  0.00000,  0.00000,1,2,   0.00,   1,1.0000
    41,    44,'2 ', 4.17000E-4, 1.61550E-2,   0.63182,    0.00,    0.00,    0.00,  0.00000,  0.00000,  0.00000,  0.00000,1,2,   0.00,   1,1.0000
    42,    46,'1 ', 4.50000E-5, 9.50000E-4,   1.00853,    0.00,    0.00,    0.00,  0.00000,  0.00000,  0.00000,  0.00000,1,2,   0.00,   1,1.0000
    42,    46,'2 ', 4.50000E-5, 9.50000E-4,   1.00622,    0.00,    0.00,    0.00,  0.00000,  0.00000,  0.00000,  0.00000,1,2,   0.00,   1,1.0000
    42,    47,'1 ', 2.80000E-4, 5.92300E-3,   1.98330,    0.00,    0.00,    0.00,  0.00000,  0.00000,  0.00000,  0.00000,1,1,   0.00,   1,1.0000
    42,    47,'2 ', 3.22000E-4, 6.81800E-3,   1.98330,    0.00,    0.00,    0.00,  0.00000,  0.00000,  0.00000,  0.00000,1,1,   0.00,   1,1.0000
    43,    47,'1 ', 1.49000E-4, 3.15800E-3,   4.13464,    0.00,    0.00,    0.00,  0.00000,  0.00000,  0.00000,  0.00000,1,1,   0.00,   1,1.0000
    44,    46,'1 ', 2.43000E-4, 5.15600E-3,   2.29496,    0.00,    0.00,    0.00,  0.00000,  0.00000,  0.00000,  0.00000,1,1,   0.00,   1,1.0000
    44,    46,'2 ', 2.43000E-4, 5.15600E-3,   2.29496,    0.00,    0.00,    0.00,  0.00000,  0.00000,  0.00000,  0.00000,1,1,   0.00,   1,1.0000
    44,    47,'1 ', 7.30000E-5, 1.50200E-3,   2.40829,    0.00,    0.00,    0.00,  0.00000,  0.00000,  0.00000,  0.00000,1,2,   0.00,   1,1.0000
    44,    47,'2 ', 7.70000E-5, 1.50300E-3,   2.40829,    0.00,    0.00,    0.00,  0.00000,  0.00000,  0.00000,  0.00000,1,2,   0.00,   1,1.0000
    46,    49,'1 ', 1.71000E-4, 3.62200E-3,   3.75747,    0.00,    0.00,    0.00,  0.00000, -1.00000,  0.00000, -1.00000,1,2,   0.00,   1,1.0000
    46,    49,'2 ', 1.71000E-4, 3.62200E-3,   3.75747,    0.00,    0.00,    0.00,  0.00000, -1.00000,  0.00000, -1.00000,1,2,   0.00,   1,1.0000
    47,    50,'1 ', 1.41000E-4, 2.98300E-3,   5.04324,    0.00,    0.00,    0.00,  0.00000,  0.00000,  0.00000,  0.00000,1,1,   0.00,   1,1.0000
    47,    50,'2 ', 1.41000E-4, 2.98300E-3,   5.04324,    0.00,    0.00,    0.00,  0.00000,  0.00000,  0.00000,  0.00000,1,1,   0.00,   1,1.0000
    48,    50,'1 ', 1.63000E-4, 3.45100E-3,   0.52416,    0.00,    0.00,    0.00,  0.00000,  0.00000,  0.00000,  0.00000,1,1,   0.00,   1,1.0000
    48,    50,'2 ', 1.63000E-4, 3.45100E-3,   2.69162,    0.00,    0.00,    0.00,  0.00000,  0.00000,  0.00000,  0.00000,1,1,   0.00,   1,1.0000
    52,    53,'1 ', 3.70000E-5, 7.88000E-4,   1.92663,    0.00,    0.00,    0.00,  0.00000,  0.00000,  0.00000,  0.00000,1,1,   0.00,   1,1.0000
    53,    60,'1 ', 1.91000E-4, 4.04800E-3,   4.24992,    0.00,    0.00,    0.00,  0.00000, -2.00000,  0.00000, -2.00000,1,1,   0.00,   1,1.0000
    53,    60,'2 ', 1.91000E-4, 4.04800E-3,   4.24992,    0.00,    0.00,    0.00,  0.00000, -2.00000,  0.00000, -2.00000,1,2,   0.00,   1,1.0000
    53,    65,'1 ', 1.97000E-4, 4.17600E-3,   0.56666,    0.00,    0.00,    0.00,  0.00000,  0.00000,  0.00000,  0.00000,1,2,   0.00,   1,1.0000
    53,    65,'2 ', 3.82000E-4, 8.09600E-3,   3.39994,    0.00,    0.00,    0.00,  0.00000, -1.00000,  0.00000, -1.00000,1,2,   0.00,   1,1.0000
    54,    62,'1 ', 8.60000E-5, 1.83200E-3,   3.39994,    0.00,    0.00,    0.00,  0.00000, -2.00000,  0.00000, -2.00000,1,2,   0.00,   1,1.0000
    54,    62,'2 ', 8.60000E-5, 1.83200E-3,   4.31048,    0.00,    0.00,    0.00,  0.00000, -2.00000,  0.00000, -2.00000,1,2,   0.00,   1,1.0000
    54,    63,'1 ', 8.60000E-5, 1.83200E-3,   7.81580,    0.00,    0.00,    0.00,  0.00000, -4.00000,  0.00000, -4.00000,1,2,   0.00,   1,1.0000
    54,    63,'2 ', 8.60000E-5, 1.83200E-3,   7.81580,    0.00,    0.00,    0.00,  0.00000, -4.00000,  0.00000, -4.00000,1,2,   0.00,   1,1.0000
    55,    60,'1 ', 1.59000E-4, 3.72400E-3,   2.59750,    0.00,    0.00,    0.00,  0.00000,  0.00000,  0.00000,  0.00000,1,2,   0.00,   1,1.0000
    55,    60,'2 ', 1.71000E-4, 3.71300E-3,   2.56896,    0.00,    0.00,    0.00,  0.00000,  0.00000,  0.00000,  0.00000,1,2,   0.00,   1,1.0000
    56,    63,'1 ', 1.37000E-4, 2.89700E-3,   2.69162,    0.00,    0.00,    0.00,  0.00000, -1.00000,  0.00000, -1.00000,1,1,   0.00,   1,1.0000
    57,    58,'1 ', 3.02000E-4, 6.39200E-3,   4.90158,    0.00,    0.00,    0.00,  0.00000, -2.00000,  0.00000, -2.00000,1,1,   0.00,   1,1.0000
    57,    58,'2 ', 3.02000E-4, 6.39200E-3,   4.90158,    0.00,    0.00,    0.00,  0.00000, -2.00000,  0.00000, -2.00000,1,1,   0.00,   1,1.0000
    57,    69,'1 ', 2.01000E-4, 4.26100E-3,   1.21831,    0.00,    0.00,    0.00,  0.00000,  0.00000,  0.00000,  0.00000,1,2,   0.00,   1,1.0000
    57,    69,'2 ', 2.01000E-4, 4.26100E-3,   1.21831,    0.00,    0.00,    0.00,  0.00000,  0.00000,  0.00000,  0.00000,1,2,   0.00,   1,1.0000
    58,    59,'1 ', 4.00000E-5, 8.52000E-4,   1.21831,    0.00,    0.00,    0.00,  0.00000,  0.00000,  0.00000, -1.00000,1,1,   0.00,   1,1.0000
    58,    66,'1 ', 2.41000E-4, 5.11300E-3,   1.21831,    0.00,    0.00,    0.00,  0.00000, -1.00000,  0.00000,  0.00000,1,1,   0.00,   1,1.0000
    58,    66,'2 ', 2.41000E-4, 5.11300E-3,   2.77661,    0.00,    0.00,    0.00,  0.00000, -1.00000,  0.00000, -1.00000,1,1,   0.00,   1,1.0000
    58,    68,'1 ', 6.60000E-5, 1.40600E-3,   3.25827,    0.00,    0.00,    0.00,  0.00000, -2.00000,  0.00000, -2.00000,1,2,   0.00,   1,1.0000
    58,    68,'2 ', 6.60000E-5, 1.40600E-3,   5.38323,    0.00,    0.00,    0.00,  0.00000, -2.00000,  0.00000, -2.00000,1,2,   0.00,   1,1.0000
    59,    67,'1 ', 2.98000E-4, 6.23100E-3,   2.71995,    0.00,    0.00,    0.00,  0.00000,  0.00000,  0.00000,  0.00000,1,1,   0.00,   1,1.0000
    59,    67,'2 ', 2.86000E-4, 6.25900E-3,   2.71995,    0.00,    0.00,    0.00,  0.00000,  0.00000,  0.00000,  0.00000,1,2,   0.00,   1,1.0000
    59,    69,'1 ', 4.78000E-4, 1.15370E-2,   0.94915,    0.00,    0.00,    0.00,  0.00000,  0.00000,  0.00000,  0.00000,1,1,   0.00,   1,1.0000
    59,    69,'2 ', 4.95000E-4, 1.15160E-2,   1.41664,    0.00,    0.00,    0.00,  0.00000,  0.00000,  0.00000,  0.00000,1,1,   0.00,   1,1.0000
    60,    66,'1 ', 1.93000E-4, 4.09100E-3,   2.83328,    0.00,    0.00,    0.00,  0.00000,  0.00000,  0.00000,  0.00000,1,2,   0.00,   1,1.0000
    60,    66,'2 ', 1.93000E-4, 4.09100E-3,   4.29158,    0.00,    0.00,    0.00,  0.00000,  0.00000,  0.00000,  0.00000,1,2,   0.00,   1,1.0000
    61,    67,'1 ', 6.70000E-5, 1.42700E-3,   0.93498,    0.00,    0.00,    0.00,  0.00000,  0.00000,  0.00000,  0.00000,1,2,   0.00,   1,1.0000
    62,    63,'1 ', 1.91000E-4, 4.04800E-3,   2.68000,    0.00,    0.00,    0.00,  0.00000, -1.00000,  0.00000, -1.00000,1,1,   0.00,   1,1.0000
    62,    63,'2 ', 1.91000E-4, 4.04800E-3,   2.68000,    0.00,    0.00,    0.00,  0.00000, -1.00000,  0.00000, -1.00000,1,1,   0.00,   1,1.0000
    63,    69,'1 ', 2.05000E-4, 4.34600E-3,   0.93498,    0.00,    0.00,    0.00,  0.00000,  0.00000,  0.00000,  0.00000,1,2,   0.00,   1,1.0000
    63,    69,'2 ', 2.05000E-4, 4.34600E-3,   0.56666,    0.00,    0.00,    0.00,  0.00000,  0.00000,  0.00000,  0.00000,1,2,   0.00,   1,1.0000
    64,    69,'1 ', 4.00000E-5, 8.52000E-4,   2.83328,    0.00,    0.00,    0.00,  0.00000,  0.00000,  0.00000,  0.00000,1,2,   0.00,   1,1.0000
    65,    67,'1 ', 2.31000E-4, 4.90000E-3,   2.83328,    0.00,    0.00,    0.00,  0.00000,  0.00000,  0.00000,  0.00000,1,1,   0.00,   1,1.0000
    65,    67,'2 ', 2.01000E-4, 4.26100E-3,   2.88995,    0.00,    0.00,    0.00,  0.00000,  0.00000,  0.00000,  0.00000,1,2,   0.00,   1,1.0000
    66,    67,'1 ', 1.01000E-4, 2.13100E-3,   2.88995,    0.00,    0.00,    0.00,  0.00000,  0.00000,  0.00000,  0.00000,1,2,   0.00,   1,1.0000
    71,    72,'1 ', 3.32000E-4, 7.03100E-3,   4.67491,    0.00,    0.00,    0.00,  0.00000, -2.00000,  0.00000, -2.00000,1,2,   0.00,   1,1.0000
    71,    74,'1 ', 4.76000E-4, 8.29600E-3,   5.45501,    0.00,    0.00,    0.00,  0.00000, -2.00000,  0.00000, -2.00000,1,2,   0.00,   1,1.0000
    72,    74,'1 ', 5.23000E-4, 1.10790E-2,   5.25919,    0.00,    0.00,    0.00,  0.00000, -2.00000,  0.00000, -2.00000,1,2,   0.00,   1,1.0000
    72,    81,'1 ', 5.59000E-4, 1.18460E-2,   7.36653,    0.00,    0.00,    0.00,  0.00000, -4.00000,  0.00000, -4.00000,1,2,   0.00,   1,1.0000
    73,    74,'1 ', 4.94000E-4, 8.60400E-3,   8.44317,    0.00,    0.00,    0.00,  0.00000, -4.00000,  0.00000, -4.00000,1,1,   0.00,   1,1.0000
    73,    84,'1 ', 7.24000E-4, 1.26200E-2,   8.44318,    0.00,    0.00,    0.00,  0.00000, -4.00000,  0.00000, -4.00000,1,2,   0.00,   1,1.0000
    75,    84,'1 ', 5.99000E-4, 1.26980E-2,   5.03539,    0.00,    0.00,    0.00,  0.00000, -2.00000,  0.00000, -2.00000,1,1,   0.00,   1,1.0000
    75,    84,'2 ', 5.99000E-4, 1.26980E-2,   5.03539,    0.00,    0.00,    0.00,  0.00000, -2.00000,  0.00000, -2.00000,1,1,   0.00,   1,1.0000
    75,    90,'1 ', 7.80000E-4, 1.41480E-2,   2.80224,    0.00,    0.00,    0.00,  0.00000, -1.00000,  0.00000, -1.00000,1,2,   0.00,   1,1.0000
    75,    90,'2 ', 6.74000E-4, 1.42740E-2,   3.21757,    0.00,    0.00,    0.00,  0.00000, -1.00000,  0.00000, -1.00000,1,2,   0.00,   1,1.0000
    76,    82,'1 ', 6.10000E-5, 1.05900E-3,   2.82462,    0.00,    0.00,    0.00,  0.00000,  0.00000,  0.00000,  0.00000,1,2,   0.00,   1,1.0000
    76,    83,'1 ', 4.56000E-4, 7.94300E-3,   3.23956,    0.00,    0.00,    0.00,  0.00000, -1.00000,  0.00000, -1.00000,1,1,   0.00,   1,1.0000
    76,    83,'2 ', 4.56000E-4, 7.94300E-3,   4.24992,    0.00,    0.00,    0.00,  0.00000, -2.00000,  0.00000, -2.00000,1,1,   0.00,   1,1.0000
    76,    91,'1 ', 4.18000E-4, 7.28100E-3,   0.05667,    0.00,    0.00,    0.00,  0.00000,  0.00000,  0.00000,  0.00000,1,2,   0.00,   1,1.0000
    76,    91,'2 ', 4.18000E-4, 7.28100E-3,   1.30331,    0.00,    0.00,    0.00,  0.00000,  0.00000,  0.00000,  0.00000,1,2,   0.00,   1,1.0000
    76,   103,'1 ', 2.00000E-6, 4.30000E-5,   1.94646,    0.00,    0.00,    0.00,  0.00000,  0.00000,  0.00000,  0.00000,1,2,   0.00,   1,1.0000
    76,   103,'2 ', 2.00000E-6, 4.30000E-5,   1.94646,    0.00,    0.00,    0.00,  0.00000,  0.00000,  0.00000,  0.00000,1,2,   0.00,   1,1.0000
    76,   103,'3 ', 2.00000E-6, 4.30000E-5,   7.87652,    0.00,    0.00,    0.00,  0.00000,  0.00000,  0.00000,  0.00000,1,2,   0.00,   1,1.0000
    77,    90,'1 ', 2.20000E-4, 5.08100E-3,   0.28333,    0.00,    0.00,    0.00,  0.00000,  0.00000,  0.00000,  0.00000,1,1,   0.00,   1,1.0000
    77,    90,'2 ', 2.82000E-4, 5.18300E-3,   0.67139,    0.00,    0.00,    0.00,  0.00000,  0.00000,  0.00000,  0.00000,1,1,   0.00,   1,1.0000
    77,    91,'1 ', 1.65000E-4, 4.70800E-3,   1.35997,    0.00,    0.00,    0.00,  0.00000,  0.00000,  0.00000,  0.00000,1,1,   0.00,   1,1.0000
    77,    91,'2 ', 2.42000E-4, 4.88900E-3,   8.00068,    0.00,    0.00,    0.00,  0.00000, -4.00000,  0.00000, -4.00000,1,1,   0.00,   1,1.0000
    77,    95,'1 ', 2.01000E-4, 4.26100E-3,   1.41664,    0.00,    0.00,    0.00,  0.00000,  0.00000,  0.00000,  0.00000,1,2,   0.00,   1,1.0000
    78,    91,'1 ', 3.60000E-4, 5.72700E-3,   1.41664,    0.00,    0.00,    0.00,  0.00000,  0.00000,  0.00000,  0.00000,1,2,   0.00,   1,1.0000
    78,    92,'1 ', 4.36000E-4, 7.00200E-3,   1.50164,    0.00,    0.00,    0.00,  0.00000,  0.00000,  0.00000,  0.00000,1,2,   0.00,   1,1.0000
    78,    95,'1 ', 3.02000E-4, 6.39200E-3,   1.50164,    0.00,    0.00,    0.00,  0.00000,  0.00000,  0.00000,  0.00000,1,1,   0.00,   1,1.0000
    79,    83,'1 ', 9.30000E-5, 1.96000E-3,   4.81658,    0.00,    0.00,    0.00,  0.00000, -2.00000,  0.00000, -2.00000,1,1,   0.00,   1,1.0000
    79,    94,'1 ', 4.00000E-6, 8.50000E-5,   4.81658,    0.00,    0.00,    0.00,  0.00000, -2.00000,  0.00000, -2.00000,1,1,   0.00,   1,1.0000
    80,    87,'1 ', 3.70000E-4, 6.44200E-3,   4.08426,    0.00,    0.00,    0.00,  0.00000,  0.00000,  0.00000,  0.00000,1,2,   0.00,   1,1.0000
    80,    87,'2 ', 3.70000E-4, 6.44200E-3,   4.08426,    0.00,    0.00,    0.00,  0.00000,  0.00000,  0.00000,  0.00000,1,2,   0.00,   1,1.0000
    80,    89,'1 ', 1.37000E-4, 2.94600E-3,   2.46495,    0.00,    0.00,    0.00,  0.00000,  0.00000,  0.00000,  0.00000,1,1,   0.00,   1,1.0000
    80,    89,'2 ', 1.38000E-4, 2.94100E-3,   2.46495,    0.00,    0.00,    0.00,  0.00000,  0.00000,  0.00000,  0.00000,1,1,   0.00,   1,1.0000
    82,   103,'1 ', 2.00000E-5, 4.26000E-4,  10.47804,    0.00,    0.00,    0.00,  0.00000, -4.00000,  0.00000, -4.00000,1,1,   0.00,   1,1.0000
    82,   105,'1 ', 2.00000E-5, 4.26000E-4,  10.47804,    0.00,    0.00,    0.00,  0.00000, -4.00000,  0.00000, -4.00000,1,2,   0.00,   1,1.0000
    83,    86,'1 ', 1.07000E-4, 2.25800E-3,   9.42840,    0.00,    0.00,    0.00,  0.00000, -4.00000,  0.00000, -4.00000,1,2,   0.00,   1,1.0000
    83,    86,'2 ', 1.07000E-4, 2.25800E-3,   9.49149,    0.00,    0.00,    0.00,  0.00000, -4.00000,  0.00000, -4.00000,1,2,   0.00,   1,1.0000
    83,    94,'1 ', 9.70000E-5, 2.04500E-3,   1.72830,    0.00,    0.00,    0.00,  0.00000, -1.00000,  0.00000, -1.00000,1,1,   0.00,   1,1.0000
    83,   106,'1 ', 9.30000E-5, 1.96000E-3,   1.72830,    0.00,    0.00,    0.00,  0.00000, -1.00000,  0.00000, -1.00000,1,2,   0.00,   1,1.0000
    84,    85,'1 ', 1.01000E-4, 2.13100E-3,   3.64291,    0.00,    0.00,    0.00,  0.00000, -2.00000,  0.00000, -1.00000,1,2,   0.00,   1,1.0000
    84,    85,'2 ', 1.01000E-4, 2.13100E-3,   4.61578,    0.00,    0.00,    0.00,  0.00000, -2.00000,  0.00000, -2.00000,1,2,   0.00,   1,1.0000
    84,    97,'1 ', 7.86000E-4, 1.50880E-2,   4.61578,    0.00,    0.00,    0.00,  0.00000, -2.00000,  0.00000, -2.00000,1,2,   0.00,   1,1.0000
    86,    87,'1 ', 3.42000E-4, 7.24400E-3,   4.42454,    0.00,    0.00,    0.00,  0.00000, -2.00000,  0.00000, -2.00000,1,1,   0.00,   1,1.0000
    86,    87,'2 ', 3.42000E-4, 7.24400E-3,   7.02751,    0.00,    0.00,    0.00,  0.00000, -3.00000,  0.00000, -3.00000,1,1,   0.00,   1,1.0000
    88,    89,'1 ', 7.44000E-4, 1.57580E-2,   2.83328,    0.00,    0.00,    0.00,  0.00000,  0.00000,  0.00000,  0.00000,1,2,   0.00,   1,1.0000
    88,    89,'2 ', 7.44000E-4, 1.57580E-2,   1.93955,    0.00,    0.00,    0.00,  0.00000,  0.00000,  0.00000,  0.00000,1,2,   0.00,   1,1.0000
    88,    90,'1 ', 1.75000E-4, 3.70700E-3,   1.93955,    0.00,    0.00,    0.00,  0.00000, -1.00000,  0.00000,  0.00000,1,1,   0.00,   1,1.0000
    88,    90,'2 ', 1.75000E-4, 3.70700E-3,   9.50042,    0.00,    0.00,    0.00,  0.00000, -4.00000,  0.00000, -4.00000,1,1,   0.00,   1,1.0000
    89,    96,'1 ', 1.38000E-4, 2.76800E-3,   7.56486,    0.00,    0.00,    0.00,  0.00000,  0.00000,  0.00000,  0.00000,1,2,   0.00,   1,1.0000
    89,    96,'2 ', 1.67000E-4, 2.79100E-3,   7.56486,    0.00,    0.00,    0.00,  0.00000,  0.00000,  0.00000,  0.00000,1,2,   0.00,   1,1.0000
    91,    93,'1 ', 1.23000E-4, 2.59900E-3,   1.18998,    0.00,    0.00,    0.00,  0.00000, -1.00000,  0.00000,  0.00000,1,1,   0.00,   1,1.0000
    91,    93,'2 ', 1.23000E-4, 2.59900E-3,   0.02833,    0.00,    0.00,    0.00,  0.00000,  0.00000,  0.00000,  0.00000,1,1,   0.00,   1,1.0000
...